Version 4
SHEET 1 880 680
TEXT 0 0 Left 2 !metadata_only_15
